*mosfetchar
Vg 1 0 dc 10
Vd 2 0 dc 20
M1 2 1 0 0 2N7000 w=400u l=10u
.MODEL 2N7000 NMOS(
+LEVEL=3 GAMMA=0 DELTA=0 ETA=0 THETA=0
+KAPPA=0.2 VMAX=0 XJ=0 TOX=2E-006 UO=600
+PHI=0.6 KP=1.073E-006 W=0.12 L=2E-006 RS=0.02
+VTO=1.73 RD=0.5489 RDS=4.8E+007 CGSO=7.361E-011 CGDO=6.487E-012
+CBD=7.446E-011 MJ=0.5 PB=0.8 FC=0.5 RG=546.2
+IS=1E-014 N=1 )
.dc Vd 0 100 1 vg 0 5 1 
.probe 
.end